ConvexEnergyFunction/Cases/case57lossless.m
function mpc = case57lossless
%CASE57LOSSLESS

%% MATPOWER Case Format : Version 2
mpc.version = '2';

%%-----  Power Flow Data  -----%%
%% system MVA base
mpc.baseMVA = 100;

%% bus data
%	bus_i	type	Pd	Qd	Gs	Bs	area	Vm	Va	baseKV	zone	Vmax	Vmin
mpc.bus = [
	1	3	55	17	0	0	1	1.04	0	0	1	1.06	0.94;
	2	2	3	88	0	0	1	1.01	-1.18	0	1	1.06	0.94;
	3	2	41	21	0	0	1	0.985	-5.97	0	1	1.06	0.94;
	4	1	0	0	0	0	1	0.981	-7.32	0	1	1.06	0.94;
	5	1	13	4	0	0	1	0.976	-8.52	0	1	1.06	0.94;
	6	2	75	2	0	0	1	0.98	-8.65	0	1	1.06	0.94;
	7	1	0	0	0	0	1	0.984	-7.58	0	1	1.06	0.94;
	8	2	150	22	0	0	1	1.005	-4.45	0	1	1.06	0.94;
	9	2	121	26	0	0	1	0.98	-9.56	0	1	1.06	0.94;
	10	1	5	2	0	0	1	0.986	-11.43	0	1	1.06	0.94;
	11	1	0	0	0	0	1	0.974	-10.17	0	1	1.06	0.94;
	12	2	377	24	0	0	1	1.015	-10.46	0	1	1.06	0.94;
	13	1	18	2.3	0	0	1	0.979	-9.79	0	1	1.06	0.94;
	14	1	10.5	5.3	0	0	1	0.97	-9.33	0	1	1.06	0.94;
	15	1	22	5	0	0	1	0.988	-7.18	0	1	1.06	0.94;
	16	1	43	3	0	0	1	1.013	-8.85	0	1	1.06	0.94;
	17	1	42	8	0	0	1	1.017	-5.39	0	1	1.06	0.94;
	18	1	27.2	9.8	0	10	1	1.001	-11.71	0	1	1.06	0.94;
	19	1	3.3	0.6	0	0	1	0.97	-13.2	0	1	1.06	0.94;
	20	1	2.3	1	0	0	1	0.964	-13.41	0	1	1.06	0.94;
	21	1	0	0	0	0	1	1.008	-12.89	0	1	1.06	0.94;
	22	1	0	0	0	0	1	1.01	-12.84	0	1	1.06	0.94;
	23	1	6.3	2.1	0	0	1	1.008	-12.91	0	1	1.06	0.94;
	24	1	0	0	0	0	1	0.999	-13.25	0	1	1.06	0.94;
	25	1	6.3	3.2	0	5.9	1	0.982	-18.13	0	1	1.06	0.94;
	26	1	0	0	0	0	1	0.959	-12.95	0	1	1.06	0.94;
	27	1	9.3	0.5	0	0	1	0.982	-11.48	0	1	1.06	0.94;
	28	1	4.6	2.3	0	0	1	0.997	-10.45	0	1	1.06	0.94;
	29	1	17	2.6	0	0	1	1.01	-9.75	0	1	1.06	0.94;
	30	1	3.6	1.8	0	0	1	0.962	-18.68	0	1	1.06	0.94;
	31	1	5.8	2.9	0	0	1	0.936	-19.34	0	1	1.06	0.94;
	32	1	1.6	0.8	0	0	1	0.949	-18.46	0	1	1.06	0.94;
	33	1	3.8	1.9	0	0	1	0.947	-18.5	0	1	1.06	0.94;
	34	1	0	0	0	0	1	0.959	-14.1	0	1	1.06	0.94;
	35	1	6	3	0	0	1	0.966	-13.86	0	1	1.06	0.94;
	36	1	0	0	0	0	1	0.976	-13.59	0	1	1.06	0.94;
	37	1	0	0	0	0	1	0.985	-13.41	0	1	1.06	0.94;
	38	1	14	7	0	0	1	1.013	-12.71	0	1	1.06	0.94;
	39	1	0	0	0	0	1	0.983	-13.46	0	1	1.06	0.94;
	40	1	0	0	0	0	1	0.973	-13.62	0	1	1.06	0.94;
	41	1	6.3	3	0	0	1	0.996	-14.05	0	1	1.06	0.94;
	42	1	7.1	4.4	0	0	1	0.966	-15.5	0	1	1.06	0.94;
	43	1	2	1	0	0	1	1.01	-11.33	0	1	1.06	0.94;
	44	1	12	1.8	0	0	1	1.017	-11.86	0	1	1.06	0.94;
	45	1	0	0	0	0	1	1.036	-9.25	0	1	1.06	0.94;
	46	1	0	0	0	0	1	1.05	-11.89	0	1	1.06	0.94;
	47	1	29.7	11.6	0	0	1	1.033	-12.49	0	1	1.06	0.94;
	48	1	0	0	0	0	1	1.027	-12.59	0	1	1.06	0.94;
	49	1	18	8.5	0	0	1	1.036	-12.92	0	1	1.06	0.94;
	50	1	21	10.5	0	0	1	1.023	-13.39	0	1	1.06	0.94;
	51	1	18	5.3	0	0	1	1.052	-12.52	0	1	1.06	0.94;
	52	1	4.9	2.2	0	0	1	0.98	-11.47	0	1	1.06	0.94;
	53	1	20	10	0	6.3	1	0.971	-12.23	0	1	1.06	0.94;
	54	1	4.1	1.4	0	0	1	0.996	-11.69	0	1	1.06	0.94;
	55	1	6.8	3.4	0	0	1	1.031	-10.78	0	1	1.06	0.94;
	56	1	7.6	2.2	0	0	1	0.968	-16.04	0	1	1.06	0.94;
	57	1	6.7	2	0	0	1	0.965	-16.56	0	1	1.06	0.94;
];

%% generator data
%	bus	Pg	Qg	Qmax	Qmin	Vg	mBase	status	Pmax	Pmin	Pc1	Pc2	Qc1min	Qc1max	Qc2min	Qc2max	ramp_agc	ramp_10	ramp_30	ramp_q	apf
mpc.gen = [
	1	128.9	-16.1	200	-140	1.04	100	1	575.88	0	0	0	0	0	0	0	0	0	0	0	0;
	2	0	-0.8	50	-17	1.01	100	1	100	0	0	0	0	0	0	0	0	0	0	0	0;
	3	40	-1	60	-10	0.985	100	1	140	0	0	0	0	0	0	0	0	0	0	0	0;
	6	0	0.8	25	-8	0.98	100	1	100	0	0	0	0	0	0	0	0	0	0	0	0;
	8	450	62.1	200	-140	1.005	100	1	550	0	0	0	0	0	0	0	0	0	0	0	0;
	9	0	2.2	9	-3	0.98	100	1	100	0	0	0	0	0	0	0	0	0	0	0	0;
	12	310	128.5	155	-150	1.015	100	1	410	0	0	0	0	0	0	0	0	0	0	0	0;
];

%% branch data
%	fbus	tbus	r	x	b	rateA	rateB	rateC	ratio	angle	status	angmin	angmax
mpc.branch = [
	1	2	0	0.0304603571	0	9900	0	0	0	0	1	-360	360;
	2	3	0	0.0954475294	0	9900	0	0	0	0	1	-360	360;
	3	4	0	0.0400273224	0	9900	0	0	0	0	1	-360	360;
	4	5	0	0.161592803	0	9900	0	0	0	0	1	-360	360;
	4	6	0	0.160493243	0	9900	0	0	0	0	1	-360	360;
	6	7	0	0.105921569	0	9900	0	0	0	0	1	-360	360;
	6	8	0	0.179642832	0	9900	0	0	0	0	1	-360	360;
	8	9	0	0.0524407921	0	9900	0	0	0	0	1	-360	360;
	9	10	0	0.176009649	0	9900	0	0	0	0	1	-360	360;
	9	11	0	0.0926495283	0	9900	0	0	0	0	1	-360	360;
	9	12	0	0.309234034	0	9900	0	0	0	0	1	-360	360;
	9	13	0	0.172643101	0	9900	0	0	0	0	1	-360	360;
	13	14	0	0.0474147465	0	9900	0	0	0	0	1	-360	360;
	13	15	0	0.0952269275	0	9900	0	0	0	0	1	-360	360;
	1	15	0	0.0944817582	0	9900	0	0	0	0	1	-360	360;
	1	16	0	0.216005631	0	9900	0	0	0	0	1	-360	360;
	1	17	0	0.113244815	0	9900	0	0	0	0	1	-360	360;
	3	15	0	0.0579516981	0	9900	0	0	0	0	1	-360	360;
	4	18	0	0.236103942	0	9900	0	0	0.97	0	1	-360	360;
	4	18	0	0.236103942	0	9900	0	0	0.978	0	1	-360	360;
	5	6	0	0.0783283931	0	9900	0	0	0	0	1	-360	360;
	7	8	0	0.0739136236	0	9900	0	0	0	0	1	-360	360;
	10	12	0	0.132279952	0	9900	0	0	0	0	1	-360	360;
	11	13	0	0.0799935792	0	9900	0	0	0	0	1	-360	360;
	12	13	0	0.0634627586	0	9900	0	0	0	0	1	-360	360;
	12	16	0	0.0852852399	0	9900	0	0	0	0	1	-360	360;
	12	17	0	0.187804972	0	9900	0	0	0	0	1	-360	360;
	14	15	0	0.0600457038	0	9900	0	0	0	0	1	-360	360;
	18	19	0	0.995249635	0	9900	0	0	0	0	1	-360	360;
	19	20	0	0.618536866	0	9900	0	0	0	0	1	-360	360;
	21	20	0	0.8100981	0	9900	0	0	1.043	0	1	-360	360;
	21	22	0	0.163298803	0	9900	0	0	0	0	1	-360	360;
	22	23	0	0.0216480263	0	9900	0	0	0	0	1	-360	360;
	23	24	0	0.363640625	0	9900	0	0	0	0	1	-360	360;
	24	25	0	0.602761194	0	9900	0	0	1	0	1	-360	360;
	24	25	0	0.602761194	0	9900	0	0	1	0	1	-360	360;
	24	26	0	0.0493339	0	9900	0	0	1.043	0	1	-360	360;
	26	27	0	0.361185039	0	9900	0	0	0	0	1	-360	360;
	27	28	0	0.135433962	0	9900	0	0	0	0	1	-360	360;
	28	29	0	0.0884655877	0	9900	0	0	0	0	1	-360	360;
	7	29	0	0.0626616	0	9900	0	0	0.967	0	1	-360	360;
	25	30	0	0.292222772	0	9900	0	0	0	0	1	-360	360;
	30	31	0	0.71083501	0	9900	0	0	0	0	1	-360	360;
	31	32	0	1.09546225	0	9900	0	0	0	0	1	-360	360;
	32	33	0	0.0786844444	0	9900	0	0	0	0	1	-360	360;
	34	32	0	0.929175	0	9900	0	0	0.975	0	1	-360	360;
	34	35	0	0.112666667	0	9900	0	0	0	0	1	-360	360;
	35	36	0	0.0881320298	0	9900	0	0	0	0	1	-360	360;
	36	37	0	0.0595781421	0	9900	0	0	0	0	1	-360	360;
	37	38	0	0.142902081	0	9900	0	0	0	0	1	-360	360;
	37	39	0	0.052971504	0	9900	0	0	0	0	1	-360	360;
	36	40	0	0.0659133047	0	9900	0	0	0	0	1	-360	360;
	22	38	0	0.0419962712	0	9900	0	0	0	0	1	-360	360;
	11	41	0	0.715295	0	9900	0	0	0.955	0	1	-360	360;
	41	42	0	0.473730114	0	9900	0	0	0	0	1	-360	360;
	41	43	0	0.412	0	9900	0	0	0	0	1	-360	360;
	38	44	0	0.072777094	0	9900	0	0	0	0	1	-360	360;
	15	45	0	0.099511	0	9900	0	0	0.955	0	1	-360	360;
	14	46	0	0.06615	0	9900	0	0	0.9	0	1	-360	360;
	46	47	0	0.0757794118	0	9900	0	0	0	0	1	-360	360;
	47	48	0	0.037516309	0	9900	0	0	0	0	1	-360	360;
	48	49	0	0.18291907	0	9900	0	0	0	0	1	-360	360;
	49	50	0	0.178125078	0	9900	0	0	0	0	1	-360	360;
	50	51	0	0.307318	0	9900	0	0	0	0	1	-360	360;
	10	51	0	0.066216	0	9900	0	0	0.93	0	1	-360	360;
	13	49	0	0.170945	0	9900	0	0	0.895	0	1	-360	360;
	29	52	0	0.298195936	0	9900	0	0	0	0	1	-360	360;
	52	53	0	0.157408537	0	9900	0	0	0	0	1	-360	360;
	53	54	0	0.384020862	0	9900	0	0	0	0	1	-360	360;
	54	55	0	0.358942561	0	9900	0	0	0	0	1	-360	360;
	11	43	0	0.146574	0	9900	0	0	0.958	0	1	-360	360;
	44	45	0	0.155550725	0	9900	0	0	0	0	1	-360	360;
	40	56	0	1.14481	0	9900	0	0	0.958	0	1	-360	360;
	56	41	0	1.10602914	0	9900	0	0	0	0	1	-360	360;
	56	42	0	0.481560028	0	9900	0	0	0	0	1	-360	360;
	39	57	0	1.3279	0	9900	0	0	0.98	0	1	-360	360;
	57	56	0	0.376446154	0	9900	0	0	0	0	1	-360	360;
	38	49	0	0.251717514	0	9900	0	0	0	0	1	-360	360;
	38	48	0	0.0683958506	0	9900	0	0	0	0	1	-360	360;
	9	55	0	0.11327	0	9900	0	0	0.94	0	1	-360	360;
];

%%-----  OPF Data  -----%%
%% generator cost data
%	1	startup	shutdown	n	x1	y1	...	xn	yn
%	2	startup	shutdown	n	c(n-1)	...	c0
mpc.gencost = [
	2	0	0	3	0.0775795	20	0;
	2	0	0	3	0.01	40	0;
	2	0	0	3	0.25	20	0;
	2	0	0	3	0.01	40	0;
	2	0	0	3	0.0222222	20	0;
	2	0	0	3	0.01	40	0;
	2	0	0	3	0.0322581	20	0;
];
